/*---------------------------------------------------------------------------*\
  =========                 |
  \\      /  F ield         | OpenFOAM: The Open Source CFD Toolbox
   \\    /   O peration     | Website:  https://openfoam.org
    \\  /    A nd           | Version:  7
     \\/     M anipulation  |
\*---------------------------------------------------------------------------*/
Build  : 7-1ff648926f77
Exec   : potentialFoam
Date   : Apr 29 2020
Time   : 21:55:37
Host   : "work"
PID    : 2759
I/O    : uncollated
Case   : /home/marc/OpenFOAM/marc-7/run/copsub_stat/ballute/v01_2ndorder
nProcs : 1
sigFpe : Enabling floating point exception trapping (FOAM_SIGFPE).
fileModificationChecking : Monitoring run-time modified files using timeStampMaster (fileModificationSkew 10)
allowSystemOperations : Allowing user-supplied system call operations

// * * * * * * * * * * * * * * * * * * * * * * * * * * * * * * * * * * * * * //
Create time

Create mesh for time = 0

Reading velocity field U

Constructing pressure field p

Constructing velocity potential field Phi

No MRF models present


Calculating potential flow
GAMG:  Solving for Phi, Initial residual = 1, Final residual = 0.000732928, No Iterations 36
GAMG:  Solving for Phi, Initial residual = 0.000458912, Final residual = 2.76845e-07, No Iterations 23
GAMG:  Solving for Phi, Initial residual = 0.00029994, Final residual = 1.87415e-07, No Iterations 19
GAMG:  Solving for Phi, Initial residual = 0.000245209, Final residual = 1.4595e-07, No Iterations 19
GAMG:  Solving for Phi, Initial residual = 0.000218668, Final residual = 1.96063e-07, No Iterations 18
GAMG:  Solving for Phi, Initial residual = 0.000198876, Final residual = 1.48085e-07, No Iterations 18
GAMG:  Solving for Phi, Initial residual = 0.000184846, Final residual = 8.85144e-08, No Iterations 18
GAMG:  Solving for Phi, Initial residual = 0.00017355, Final residual = 1.68056e-07, No Iterations 16
GAMG:  Solving for Phi, Initial residual = 0.000164383, Final residual = 1.19001e-07, No Iterations 16
GAMG:  Solving for Phi, Initial residual = 0.00015643, Final residual = 1.04515e-07, No Iterations 16
GAMG:  Solving for Phi, Initial residual = 0.000150273, Final residual = 8.83706e-08, No Iterations 16
Continuity error = 8.33786e-05
Interpolated velocity error = 9.63461e-06
ExecutionTime = 11.89 s  ClockTime = 12 s

End

